Info: SIMULATION PARAMETERS:
Info: TIMESTEP               2
Info: NUMBER OF STEPS        0
Info: STEPS PER CYCLE        20
Info: FIRST LDB TIMESTEP     100
Info: LAST LDB TIMESTEP     -1
Info: HOM BACKGROUND SCALING 1
Info: MIN ATOMS PER PATCH    40
Info: INITIAL TEMPERATURE    310
Info: CENTER OF MASS MOVING INITIALLY? NO
Info: DIELECTRIC             80
Info: EXCLUDE                SCALED ONE-FOUR
Info: 1-4 ELECTROSTATICS SCALED BY 1
Info: MODIFIED 1-4 VDW PARAMETERS WILL BE USED
Info: DCD FILENAME           order.dcd
Info: DCD FREQUENCY          20
Info: DCD FIRST STEP         20
Info: XST FILENAME           order.xst
Info: XST FREQUENCY          1000
Info: NO VELOCITY DCD OUTPUT
Info: NO FORCE DCD OUTPUT
Info: OUTPUT FILENAME        order
Info: BINARY OUTPUT FILES WILL BE USED
Info: RESTART FILENAME       order.restart
Info: RESTART FREQUENCY      1000
Info: BINARY RESTART FILES WILL BE USED
Info: SWITCHING ACTIVE
Info: SWITCHING ON           10
Info: SWITCHING OFF          12
Info: PAIRLIST DISTANCE      13.5
Info: PAIRLIST SHRINK RATE   0.01
Info: PAIRLIST GROW RATE     0.01
Info: PAIRLIST TRIGGER       0.3
Info: PAIRLISTS PER CYCLE    2
Info: PAIRLISTS ENABLED
Info: MARGIN                 3
Info: HYDROGEN GROUP CUTOFF  2.5
Info: PATCH DIMENSION        19
Info: ENERGY OUTPUT STEPS    100
Info: CROSSTERM ENERGY INCLUDED IN DIHEDRAL
Info: TIMING OUTPUT STEPS    1000
Info: HARMONIC CONSTRAINTS ACTIVE
Info: HARMONIC CONS EXP      2
Info: HARMONIC CONS SCALING  2
Info: SELECTED CARTESIAN COMPONENTS OF HARMONIC RESTRAINTS ACTIVE
Info: RESTRAINING Z-COMPONENTS OF CARTESIAN COORDINATES!
Info: GRID FORCE ACTIVE
Info:  Please include this reference in published work using
Info:  the Gridforce module of NAMD: David Wells, Volha Abramkina,
Info:  and Aleksei Aksimentiev, J. Chem. Phys. 127:125101-10 (2007).
Info: MGRIDFORCE key BaseGridForceParams
Info:            Potfile ../grid-lip.dx
Info:            Scale 1 1 1
Info:            File ../lip-tails-pre.pdb
Info:            Col B
Info:            ChargeCol O
Info:            VOffset 0 0 0
Info:            Continuous K1 TRUE
Info:            Continuous K2 TRUE
Info:            Continuous K3 FALSE
Info:            Volts FALSE
Info:            Gridforce-Lite FALSE
Info:            Gridforce-CheckSize TRUE
Info: LANGEVIN DYNAMICS ACTIVE
Info: LANGEVIN TEMPERATURE   310
Info: LANGEVIN USING BBK INTEGRATOR
Info: LANGEVIN DAMPING COEFFICIENT IS 1 INVERSE PS
Info: LANGEVIN DYNAMICS NOT APPLIED TO HYDROGENS
Info: USING VERLET I (r-RESPA) MTS SCHEME.
Info: C1 SPLITTING OF LONG RANGE ELECTROSTATICS
Info: PLACING ATOMS IN PATCHES BY HYDROGEN GROUPS
Info: RIGID BONDS TO HYDROGEN : ALL
Info:         ERROR TOLERANCE : 1e-08
Info:          MAX ITERATIONS : 100
Info: RIGID WATER USING SETTLE ALGORITHM
Info: RANDOM NUMBER SEED     1583529507
Info: USE HYDROGEN BONDS?    NO
Info: COORDINATE PDB         system_fl_rp.pdb
Info: STRUCTURE FILE         system_fl_rp.psf
Info: PARAMETER file: CHARMM format!
Info: PARAMETERS             par_all36_carb.prm
Info: PARAMETERS             par_all36_cgenff.prm
Info: PARAMETERS             par_all36_lipid.prm
Info: PARAMETERS             toppar_all36_lipid_cholesterol.str
Info: PARAMETERS             par_all36m_prot.prm
Info: USING ARITHMETIC MEAN TO COMBINE L-J SIGMA PARAMETERS
Info: SKIPPING rtf SECTION IN STREAM FILE
Info: SUMMARY OF PARAMETERS:
Info: 833 BONDS
Info: 2494 ANGLES
Info: 6095 DIHEDRAL
Info: 174 IMPROPER
Info: 6 CROSSTERM
Info: 293 VDW
Info: 13 VDW_PAIRS
Info: 0 NBTHOLE_PAIRS
Info: STRUCTURE SUMMARY:
Info: 37596 ATOMS
Info: 37824 BONDS
Info: 73628 ANGLES
Info: 108029 DIHEDRALS
Info: 765 IMPROPERS
Info: 108 CROSSTERMS
Info: 0 EXCLUSIONS
Info: 2088 CONSTRAINTS
Info: 22697 RIGID BONDS
Info: 1 GRIDS ACTIVE
Info: 90091 DEGREES OF FREEDOM
Info: 14899 HYDROGEN GROUPS
Info: 4 ATOMS IN LARGEST HYDROGEN GROUP
Info: 14899 MIGRATION GROUPS
Info: 4 ATOMS IN LARGEST MIGRATION GROUP
Info: TOTAL MASS = 214358 amu
Info: TOTAL CHARGE = -70 e
Info: ADDED 217510 IMPLICIT EXCLUSIONS
Info: NONBONDED TABLE R-SQUARED SPACING: 0.0625
Info: NONBONDED TABLE SIZE: 769 POINTS
Info: ORIGINAL ATOMS MINMAX IS -62.167 -55.618 -26.905  58.176 55.278 62.967
Info: ADJUSTED ATOMS MINMAX IS -46.1521 -46.8091 -20.0325  47.2291 47.2121 22.4725
Info: REMOVING COM VELOCITY -0.0167686 -0.0744657 0.0499664
Info: Updated CUDA force table with 4096 elements.
Info: Updated CUDA LJ table with 293 x 293 elements.
Info: Found 323 unique exclusion lists needing 1196 bytes
TCL: Minimizing for 10000 steps
ETITLE: TS BOND ANGLE DIHED IMPRP ELECT VDW BOUNDARY MISC KINETIC TOTAL TEMP POTENTIAL TOTAL3 TEMPAVG
ENERGY: 0 805.0312 9075.7515 12999.5015 16.6220 -184.5914 -11191.1108 0.0001 0.0000 0.0000 11521.2042 0.0000 11521.2042 11521.2042 0.0000
ENERGY: 2000 759.7728 8657.8509 12171.4949 15.6641 -180.3220 -12417.4763 46.8884 0.0000 0.0000 9053.8728 0.0000 9053.8728 9053.8728 0.0000
ENERGY: 4000 764.2006 8628.4930 12096.7371 15.5523 -177.1044 -12840.9857 61.3035 0.0000 0.0000 8548.1965 0.0000 8548.1965 8548.1965 0.0000
ENERGY: 6000 755.5329 8624.4750 12074.1478 15.6719 -175.4525 -12983.7496 67.7112 0.0000 0.0000 8378.3367 0.0000 8378.3367 8378.3367 0.0000
ENERGY: 8000 760.5782 8638.4583 12055.8301 15.8554 -174.3708 -13137.5734 73.7486 0.0000 0.0000 8232.5264 0.0000 8232.5264 8232.5264 0.0000
ENERGY: 10000 755.9518 8643.1120 12048.1378 15.9346 -173.5692 -13230.0159 77.3846 0.0000 0.0000 8136.9358 0.0000 8136.9358 8136.9358 0.0000
